<?xml version="1.0" encoding="UTF-8"?>

<!-- generated on 2024-10-15 12:02:50 by Eclipse SUMO netedit Version 1.20.0
<configuration xmlns:xsi="http://www.w3.org/2001/XMLSchema-instance" xsi:noNamespaceSchemaLocation="http://sumo.dlr.de/xsd/neteditConfiguration.xsd">

    <input>
        <sumo-net-file value="/home/spyder/projects/zhengxuan_projects/Mixed_traffic/HARL/harl/envs/a_sigle_lane/env_utils/SUMO_files/veh.net.xml"/>
    </input>

    <output>
        <output-file value="/home/spyder/projects/zhengxuan_projects/Mixed_traffic/HARL/harl/envs/a_sigle_lane/env_utils/SUMO_files/veh.net.xml"/>
    </output>

    <processing>
        <geometry.min-radius.fix.railways value="false"/>
        <geometry.max-grade.fix value="false"/>
        <offset.disable-normalization value="true"/>
        <lefthand value="0"/>
    </processing>

    <junctions>
        <no-turnarounds value="true"/>
        <junctions.corner-detail value="5"/>
        <junctions.limit-turn-speed value="5.50"/>
        <rectangular-lane-cut value="0"/>
    </junctions>

    <pedestrian>
        <walkingareas value="0"/>
    </pedestrian>

</configuration>
-->

<net version="1.20" junctionCornerDetail="5" limitTurnSpeed="5.50" xmlns:xsi="http://www.w3.org/2001/XMLSchema-instance" xsi:noNamespaceSchemaLocation="http://sumo.dlr.de/xsd/net_file.xsd">

    <location netOffset="0.00,0.00" convBoundary="0.00,0.00,200.00,200.00" origBoundary="-10000000000.00,-10000000000.00,10000000000.00,10000000000.00" projParameter="!"/>

    <edge id=":J0_0" function="internal">
        <lane id=":J0_0_0" index="0" speed="10.00" length="2.58" shape="0.00,1.60 0.10,0.90 0.40,0.40 0.90,0.10 1.60,0.00"/>
    </edge>
    <edge id=":J1_0" function="internal">
        <lane id=":J1_0_0" index="0" speed="10.00" length="2.58" shape="198.40,0.00 199.10,0.10 199.60,0.40 199.90,0.90 200.00,1.60"/>
    </edge>
    <edge id=":J2_0" function="internal">
        <lane id=":J2_0_0" index="0" speed="10.00" length="2.58" shape="200.00,198.40 199.90,199.10 199.60,199.60 199.10,199.90 198.40,200.00"/>
    </edge>
    <edge id=":J3_0" function="internal">
        <lane id=":J3_0_0" index="0" speed="10.00" length="2.58" shape="1.60,200.00 0.90,199.90 0.40,199.60 0.10,199.10 0.00,198.40"/>
    </edge>

    <edge id="E0" from="J0" to="J1" priority="-1" spreadType="center">
        <lane id="E0_0" index="0" speed="20.00" length="196.80" shape="1.60,0.00 198.40,0.00"/>
    </edge>
    <edge id="E1" from="J1" to="J2" priority="-1" spreadType="center">
        <lane id="E1_0" index="0" speed="20.00" length="196.80" shape="200.00,1.60 200.00,198.40"/>
    </edge>
    <edge id="E2" from="J2" to="J3" priority="-1" spreadType="center">
        <lane id="E2_0" index="0" speed="20.00" length="196.80" shape="198.40,200.00 1.60,200.00"/>
    </edge>
    <edge id="E3" from="J3" to="J0" priority="-1" spreadType="center">
        <lane id="E3_0" index="0" speed="20.00" length="196.80" shape="0.00,198.40 0.00,1.60"/>
    </edge>

    <junction id="J0" type="priority" x="0.00" y="0.00" incLanes="E3_0" intLanes=":J0_0_0" shape="-1.60,1.60 1.60,1.60 1.60,-1.60 -0.18,-1.24 -0.80,-0.80 -1.24,-0.18 -1.51,0.62">
        <request index="0" response="0" foes="0" cont="0"/>
    </junction>
    <junction id="J1" type="priority" x="200.00" y="0.00" incLanes="E0_0" intLanes=":J1_0_0" shape="198.40,1.60 201.60,1.60 201.24,-0.18 200.80,-0.80 200.18,-1.24 199.38,-1.51 198.40,-1.60">
        <request index="0" response="0" foes="0" cont="0"/>
    </junction>
    <junction id="J2" type="priority" x="200.00" y="200.00" incLanes="E1_0" intLanes=":J2_0_0" shape="201.60,198.40 198.40,198.40 198.40,201.60 200.18,201.24 200.80,200.80 201.24,200.18 201.51,199.38">
        <request index="0" response="0" foes="0" cont="0"/>
    </junction>
    <junction id="J3" type="priority" x="0.00" y="200.00" incLanes="E2_0" intLanes=":J3_0_0" shape="1.60,201.60 1.60,198.40 -1.60,198.40 -1.24,200.18 -0.80,200.80 -0.18,201.24 0.62,201.51">
        <request index="0" response="0" foes="0" cont="0"/>
    </junction>

    <connection from="E0" to="E1" fromLane="0" toLane="0" via=":J1_0_0" dir="l" state="M"/>
    <connection from="E1" to="E2" fromLane="0" toLane="0" via=":J2_0_0" dir="l" state="M"/>
    <connection from="E2" to="E3" fromLane="0" toLane="0" via=":J3_0_0" dir="l" state="M"/>
    <connection from="E3" to="E0" fromLane="0" toLane="0" via=":J0_0_0" dir="l" state="M"/>

    <connection from=":J0_0" to="E0" fromLane="0" toLane="0" dir="l" state="M"/>
    <connection from=":J1_0" to="E1" fromLane="0" toLane="0" dir="l" state="M"/>
    <connection from=":J2_0" to="E2" fromLane="0" toLane="0" dir="l" state="M"/>
    <connection from=":J3_0" to="E3" fromLane="0" toLane="0" dir="l" state="M"/>

</net>
