<?xml version="1.0" encoding="UTF-8"?>

<!-- generated on 2024-10-22 10:14:29 by Eclipse SUMO netedit Version 1.20.0
<configuration xmlns:xsi="http://www.w3.org/2001/XMLSchema-instance" xsi:noNamespaceSchemaLocation="http://sumo.dlr.de/xsd/neteditConfiguration.xsd">

    <input>
        <sumo-net-file value="/home/spyder/projects/zhengxuan_projects/Mixed_traffic/HARL/harl/envs/a_single_lane/env_utils/Straight_SUMO_files/veh.net.xml"/>
    </input>

    <output>
        <output-file value="/home/spyder/projects/zhengxuan_projects/Mixed_traffic/HARL/harl/envs/a_single_lane/env_utils/Straight_SUMO_files/veh.net.xml"/>
    </output>

    <processing>
        <geometry.min-radius.fix.railways value="false"/>
        <geometry.max-grade.fix value="false"/>
        <offset.disable-normalization value="true"/>
        <lefthand value="0"/>
    </processing>

    <junctions>
        <no-turnarounds value="true"/>
        <junctions.corner-detail value="5"/>
        <junctions.limit-turn-speed value="5.50"/>
        <rectangular-lane-cut value="0"/>
    </junctions>

    <pedestrian>
        <walkingareas value="0"/>
    </pedestrian>

</configuration>
-->

<net version="1.20" junctionCornerDetail="5" limitTurnSpeed="5.50" xmlns:xsi="http://www.w3.org/2001/XMLSchema-instance" xsi:noNamespaceSchemaLocation="http://sumo.dlr.de/xsd/net_file.xsd">

    <location netOffset="0.00,0.00" convBoundary="-500.00,0.00,2000.00,0.00" origBoundary="-10000000000.00,-10000000000.00,10000000000.00,10000000000.00" projParameter="!"/>

    <edge id=":J1_0" function="internal">
        <lane id=":J1_0_0" index="0" speed="20.00" length="0.10" shape="0.00,0.00 0.00,0.00"/>
    </edge>

    <edge id="E0" from="J0" to="J1" priority="-1" spreadType="center">
        <lane id="E0_0" index="0" speed="20.00" length="500.00" shape="-500.00,0.00 0.00,0.00"/>
    </edge>
    <edge id="E1" from="J1" to="J2" priority="-1" spreadType="center">
        <lane id="E1_0" index="0" speed="20.00" length="2000.00" shape="0.00,0.00 2000.00,0.00"/>
    </edge>

    <junction id="J0" type="dead_end" x="-500.00" y="0.00" incLanes="" intLanes="" shape="-500.00,1.60 -500.00,-1.60"/>
    <junction id="J1" type="priority" x="0.00" y="0.00" incLanes="E0_0" intLanes=":J1_0_0" shape="0.00,1.60 0.00,-1.60 0.00,1.60">
        <request index="0" response="0" foes="0" cont="0"/>
    </junction>
    <junction id="J2" type="dead_end" x="2000.00" y="0.00" incLanes="E1_0" intLanes="" shape="2000.00,-1.60 2000.00,1.60"/>

    <connection from="E0" to="E1" fromLane="0" toLane="0" via=":J1_0_0" dir="s" state="M"/>

    <connection from=":J1_0" to="E1" fromLane="0" toLane="0" dir="s" state="M"/>

</net>
